CRYSTAL
PRIMVEC
        6.5143489838         0.0000000000         0.0000000000
        0.0000000000         6.5143489838         0.0000000000
        0.0000000000         0.0000000000        26.9063320160
PRIMCOORD
20 1
O	0	0	0	0
O	3.257174492	3.257174492	0	0
Ag	1.628587246	0	1.151591063	0
Ag	4.885768414	3.257174492	1.151591063	0
Ag	4.885761738	0	1.151591063	0
Ag	1.628587246	3.257174492	1.151591063	0
O	3.257174492	0	2.303182125	0
O	0	3.257174492	2.303182125	0
Ag	3.257174492	1.595227361	3.496908426	1
Ag	0	4.852408409	3.496908426	1
Ag	3.257174492	4.919121742	3.496908426	1
Ag	0	1.661947131	3.496908426	1
O	0	0	4.5966506	1
O	3.257174492	3.257174492	4.5966506	1
Ag	1.73065412	0	5.558148384	1
Ag	4.987828255	3.257174492	5.558148384	1
Ag	4.78370142	0	5.558148384	1
Ag	1.526526928	3.257174492	5.558148384	1
O	3.257174492	0	6.658133507	1
O	0	3.257174492	6.658133507	1
