CRYSTAL
PRIMVEC
6.626390 0 0
0 6.626390 0
0 0 23.427832
PRIMCOORD
20 1
O	0.000000	1.656716	1.451744	0
O	3.313195	4.969914	1.451744	0
Ag	4.871891	4.969861	2.534934	0
Ag	1.754499	4.969861	2.534935	0
Ag	5.067694	1.656664	2.534935	0
Ag	1.558696	1.656664	2.534935	0
O	3.313195	1.656620	3.499018	0
O	0.000000	4.969817	3.499018	0
Ag	0.000000	3.313197	4.685539	1
Ag	3.313195	0.000001	4.685539	1
Ag	3.313195	3.313203	4.685569	1
Ag	0.000000	0.000006	4.685569	1
O	3.313195	4.969796	5.872098	1
O	0.000000	1.656599	5.872100	1
Ag	5.067692	4.969735	6.836180	1
Ag	1.558698	4.969735	6.836181	1
Ag	1.754497	1.656538	6.836181	1
Ag	4.871893	1.656538	6.836181	1
O	0.000000	4.969725	7.919369	1
O	3.313195	1.656528	7.919370	1
