CRYSTAL
PRIMVEC
        9.371129990         0.000000000         0.000000000
        0.000000000         9.371129990         0.000000000
        0.000000000         0.000000000        23.427831650
PRIMCOORD
40 1
O	8.199654579	1.171475053	1.45174396	0
O	3.514090061	5.857039928	1.45174396	0
O	8.199652672	5.857042313	1.45174396	0
O	3.514087677	1.171477318	1.45174396	0
Ag	-0.069274902	6.959168911	2.534934044	0
Ag	4.616289616	2.273603439	2.534934044	0
Ag	7.097526073	4.754840374	2.534934998	0
Ag	2.411961555	0.0692752	2.534934998	0
Ag	2.411962271	4.754838943	2.534934998	0
Ag	7.097527027	0.069274083	2.534934998	0
Ag	-0.069273949	2.273602724	2.534934998	0
Ag	4.616291046	6.959167957	2.534934998	0
O	1.171375275	3.51418972	3.499017954	0
O	5.856940746	8.199754715	3.499017954	0
O	5.856938839	3.514191151	3.499017954	0
O	1.171373367	8.199755669	3.499017954	0
Ag	7.028346539	2.342783928	4.685538769	1
Ag	2.342781305	7.028348446	4.685538769	1
Ag	2.342781782	2.342783451	4.685538769	1
Ag	7.028347015	7.028348446	4.685538769	1
Ag	0	4.685570717	4.68556881	1
Ag	4.685559273	0	4.68556881	1
Ag	0	0	4.68556881	1
Ag	4.685560703	4.685569286	4.68556881	1
O	8.199736595	5.856958389	5.872097969	1
O	3.5141716	1.171393514	5.872097969	1
O	8.199737549	1.171392322	5.872099876	1
O	3.514172554	5.856957436	5.872099876	1
Ag	0.069266267	7.097532272	6.836179733	1
Ag	4.754831314	2.411967278	6.836179733	1
Ag	6.959162712	4.616298676	6.836181164	1
Ag	2.273597717	-0.069266319	6.836181164	1
Ag	0.069267452	2.411965847	6.836181164	1
Ag	4.754832268	7.097531319	6.836181164	1
Ag	2.273599148	4.616297245	6.836181164	1
Ag	6.959163666	-0.069267273	6.836181164	1
O	5.857004166	3.514126062	7.919368744	1
O	1.17143929	8.199690819	7.919368744	1
O	1.171440363	3.514124632	7.919370174	1
O	5.857005596	8.199689865	7.919370174	1
