CRYSTAL
PRIMVEC
6.54071080729722    0.00000000000000    0.00000000000000
0.00000000000000    6.54071080729722    0.00000000000000
0.00000000000000    0.00000000000000       21.96403372872000
PRIMCOORD
20 1
O    -1.63515699150814    3.27035527946652    0.74735524200000 0
O    1.63519839331729    -0.00000018596908    0.74735359700000 0
O    1.63511092279424    3.27035529148733    2.85249672000000 0
O    4.90546658197710    -0.00000002545584    2.85249726400000 0
Ag    -0.00196955118669    3.27035464872727    4.04482981200000 0
Ag    3.26838618931345    0.00000001131371    4.04483088400000 0
Ag    1.63514810176169    1.53607306406732    1.86113938800000 0
Ag    4.90550427359696    4.80642901669949    1.86113927000000 0
Ag    1.63515118474725    -1.53607240928644    1.86113985000000 0
Ag    4.90550616157207    1.73428255763888    1.86114039000000 0
Ag    0.00184128130947    -0.00000055083618    4.04489498800000 0
Ag    3.27219618671650    3.27035513380252    4.04489507700000 0
O    1.63514195063980    -0.00000014071425    5.24323956500000 1
O    4.90549718980123    3.27035532189292    5.24323882400000 1
O    -1.63509588616854    -0.00000012445079    7.34763099600000 1
O    1.63525956300361    3.27035521017005    7.34763270700000 1
Ag    -1.63511332200755    -1.53548012674702    6.23299248600000 0
Ag    1.63524201261330    1.73487478360975    6.23299398300000 0
Ag    -1.63510971152032    1.53548103891477    6.23299344300000 0
Ag    1.63524580553407    4.80583577673749    6.23299351400000 0
