CRYSTAL
PRIMVEC
         6.540710807   0.000000000   0.000000000
         0.000000000   6.540710807   0.000000000
         0.000000000   0.000000000  21.964033729
PRIMCOORD
20 1
O       -1.635156992   3.270355279   0.747355242    0
O        1.635198393  -0.000000186   0.747353597    0
O        1.635110923   3.270355291   2.852496720    0
O        4.905466582  -0.000000025   2.852497264    0
Ag       1.635148102   1.536073064   1.861139388    0
Ag       4.905504274   4.806429017   1.861139270    0
Ag       1.635151185  -1.536072409   1.861139850    0
Ag       4.905506162   1.734282558   1.861140390    0
Ag      -0.002755932   3.270355485   4.061533028    1
Ag       3.267599359   0.000000527   4.061532743    1
Ag       0.002658326   0.000000277   4.061483313    1
Ag       3.273013341   3.270354688   4.061483138    1
O        1.635098571   0.000000577   5.276608563    1
O        4.905453391   3.270355412   5.276608781    1
O       -1.635117776   0.000000005   7.399884321    1
O        1.635236138   3.270355831   7.399883942    1
Ag      -1.635232054  -1.541021993   6.288793568    1
Ag       1.635122649   1.729334261   6.288792938    1
Ag      -1.635231077   1.541022202   6.288793460    1
Ag       1.635122670   4.811378126   6.288793612    1
