CRYSTAL
PRIMVEC
       11.4519195557         0.0000000000         0.0000000000
        5.7259604381         9.9176528761         0.0000000000
      -14.3149036998        -8.2647128691        23.3761319919
PRIMCOORD
   48 1
Ag	-0.716449857	-0.41364333	1.198982	0
Ag	0.714828789	2.065979004	1.199103475	0
Ag	2.146558285	4.545489311	1.199014664	0
Ag	3.578124762	7.024769306	1.198803544	0
Ag	2.146606445	-0.41392982	1.199103475	0
Ag	3.578465462	2.066027164	1.199143171	0
Ag	5.009704113	4.545469761	1.19961226	0
Ag	6.440947533	7.02425766	1.199651718	0
Ag	5.009789467	-0.413770705	1.199014664	0
Ag	6.441345215	2.06579423	1.19961226	0
Ag	7.872689247	4.545298576	1.200211525	0
Ag	9.304247856	7.024317265	1.199744463	0
Ag	7.872692108	-0.413638145	1.198803544	0
Ag	9.303659439	2.065893888	1.199651718	0
Ag	10.73536205	4.545554638	1.199744463	0
Ag	12.16722679	7.02475071	1.198444247	0
Ag	15.03073311	8.677996635	3.506174326	1
Ag	10.73589993	1.23958087	3.506563902	1
Ag	12.16721535	3.719032764	3.506639242	1
Ag	13.5991354	6.198372364	3.506013393	1
Ag	6.441457748	8.677770615	3.506563902	1
Ag	2.147062063	1.239606857	3.506504774	1
Ag	3.578858137	3.71914649	3.506592989	1
Ag	5.01041317	6.198410034	3.506440639	1
Ag	9.304384232	8.677601814	3.506639242	1
Ag	5.010304451	1.239808798	3.506592989	1
Ag	6.441659451	3.719092846	3.506649971	1
Ag	7.872885227	6.198298454	3.506786823	1
Ag	12.1675148	8.678009987	3.506013393	1
Ag	7.873187065	1.239940405	3.506440639	1
Ag	9.304325104	3.718968868	3.506786823	1
Ag	10.73583031	6.198334694	3.506336212	1
Ag	13.60027885	7.852124691	5.813237667	1
Ag	9.305355072	0.413826942	5.813623428	1
Ag	10.73651505	2.89297843	5.813575745	1
Ag	12.16827965	5.372221947	5.813523293	1
Ag	5.011062145	7.851759434	5.813623428	1
Ag	0.716265202	0.413536072	5.813847542	1
Ag	2.147930622	2.892952919	5.813734531	1
Ag	3.580022573	5.372309208	5.813308239	1
Ag	7.873650551	7.851605415	5.813575745	1
Ag	3.579335213	0.413686514	5.813734531	1
Ag	5.011278152	2.893263578	5.813446522	1
Ag	6.442601204	5.372468948	5.813265324	1
Ag	10.73661995	7.851928711	5.813523293	1
Ag	6.442566872	0.41423583	5.813308239	1
Ag	7.87399292	2.89322257	5.813265324	1
Ag	9.30516243	5.372338772	5.813166618	1
